ID8
  CCTOOLS-0919241032

 33 34  0  0  0  0  0  0  0  0999 V2000
    0.3060    1.9240    0.3520 O   0  0  0  0  0
    1.4540    1.7680   -0.0160 C   0  0  0  0  0
    2.1620    2.8180   -0.4770 O   0  0  0  0  0
    2.0730    0.4330    0.0480 C   0  0  0  0  0
    3.3750    0.2380   -0.4220 C   0  0  0  0  0
    3.9470   -1.0130   -0.3590 C   0  0  0  0  0
    3.2400   -2.0820    0.1680 C   0  0  0  0  0
    1.9540   -1.9070    0.6350 C   0  0  0  0  0
    1.3610   -0.6510    0.5870 C   0  0  0  0  0
    0.0680   -0.4700    1.0620 N   0  0  0  0  0
   -1.0080   -0.4510    0.1710 C   0  0  0  0  0
   -2.2860   -0.1590    0.6300 C   0  0  0  0  0
   -2.5150    0.1370    2.0900 C   0  0  0  0  0
   -0.8010   -0.7180   -1.1760 C   0  0  0  0  0
   -1.8670   -0.6980   -2.0540 C   0  0  0  0  0
   -3.1390   -0.4120   -1.5930 C   0  0  0  0  0
   -3.3480   -0.1400   -0.2530 C   0  0  0  0  0
   -4.7350    0.1760    0.2430 C   0  0  0  0  0
    1.7150    3.6750   -0.4970 H   0  0  0  0  0
    3.9310    1.0670   -0.8340 H   0  0  0  0  0
    4.9530   -1.1620   -0.7220 H   0  0  0  0  0
    3.6980   -3.0600    0.2120 H   0  0  0  0  0
    1.4090   -2.7450    1.0430 H   0  0  0  0  0
   -0.0870   -0.3570    2.0130 H   0  0  0  0  0
    0.1920   -0.9410   -1.5360 H   0  0  0  0  0
   -2.4050    1.2080    2.2650 H   0  0  0  0  0
   -3.5200   -0.1760    2.3710 H   0  0  0  0  0
   -1.7840   -0.4050    2.6900 H   0  0  0  0  0
   -1.7070   -0.9050   -3.1020 H   0  0  0  0  0
   -3.9700   -0.3960   -2.2820 H   0  0  0  0  0
   -4.9050    1.2510    0.1860 H   0  0  0  0  0
   -5.4690   -0.3410   -0.3750 H   0  0  0  0  0
   -4.8340   -0.1530    1.2780 H   0  0  0  0  0
  1  2  2  0  0  0
  2  3  1  0  0  0
  2  4  1  0  0  0
  3 19  1  0  0  0
  4  5  1  0  0  0
  4  9  2  0  0  0
  5  6  2  0  0  0
  5 20  1  0  0  0
  6  7  1  0  0  0
  6 21  1  0  0  0
  7  8  2  0  0  0
  7 22  1  0  0  0
  8  9  1  0  0  0
  8 23  1  0  0  0
  9 10  1  0  0  0
 10 11  1  0  0  0
 10 24  1  0  0  0
 11 12  1  0  0  0
 11 14  2  0  0  0
 12 13  1  0  0  0
 12 17  2  0  0  0
 13 26  1  0  0  0
 13 27  1  0  0  0
 13 28  1  0  0  0
 14 15  1  0  0  0
 14 25  1  0  0  0
 15 16  2  0  0  0
 15 29  1  0  0  0
 16 17  1  0  0  0
 16 30  1  0  0  0
 17 18  1  0  0  0
 18 31  1  0  0  0
 18 32  1  0  0  0
 18 33  1  0  0  0
M  END
$$$$
